*Heading
 Task 9 rectangular plane-stress plate tension
** Job name: task9_rect_plate_tension Model name: Task9_Rectangular_Plate_Tension
** Generated by: Abaqus/CAE 2026
*Preprint, echo=NO, model=NO, history=NO, contact=NO
**
** PARTS
**
*Part, name=Plate
*Node
      1,           0.,           0.
      2, 0.0500000007,           0.
      3,  0.100000001,           0.
      4,  0.150000006,           0.
      5,  0.200000003,           0.
      6,         0.25,           0.
      7,  0.300000012,           0.
      8,  0.349999994,           0.
      9,  0.400000006,           0.
     10,  0.449999988,           0.
     11,          0.5,           0.
     12,  0.550000012,           0.
     13,  0.600000024,           0.
     14,  0.649999976,           0.
     15,  0.699999988,           0.
     16,         0.75,           0.
     17,  0.800000012,           0.
     18,  0.850000024,           0.
     19,  0.899999976,           0.
     20,  0.949999988,           0.
** ... 169 like lines cut
*Element, type=CPS3
  1,   1,   2,  23
  2,  23,  22,   1
  3,   2,   3,  24
  4,  24,  23,   2
  5,   3,   4,  25
  6,  25,  24,   3
  7,   4,   5,  26
  8,  26,  25,   4
  9,   5,   6,  27
 10,  27,  26,   5
 11,   6,   7,  28
 12,  28,  27,   6
 13,   7,   8,  29
 14,  29,  28,   7
 15,   8,   9,  30
 16,  30,  29,   8
 17,   9,  10,  31
 18,  31,  30,   9
 19,  10,  11,  32
 20,  32,  31,  10
** ... 300 like lines cut
*Nset, nset=Plate_all, generate
   1,  189,    1
*Elset, elset=Plate_all, generate
   1,  320,    1
** Section: Plane_stress_section
*Solid Section, elset=Plate_all, material=Steel_linear_elastic
0.01,
*End Part
**  
**
** ASSEMBLY
**
*Assembly, name=Assembly
**  
*Instance, name=Plate-1, part=Plate
*End Instance
**  
*Nset, nset=LeftEdge, instance=Plate-1, generate
   1,  169,   21
*Elset, elset=LeftEdge, instance=Plate-1, generate
   2,  282,   40
*Nset, nset=RightEdge, instance=Plate-1, generate
  21,  189,   21
*Elset, elset=RightEdge, instance=Plate-1, generate
  39,  319,   40
*Nset, nset=RightNode_21, instance=Plate-1
 21,
*Nset, nset=RightNode_42, instance=Plate-1
 42,
*Nset, nset=RightNode_63, instance=Plate-1
 63,
*Nset, nset=RightNode_84, instance=Plate-1
 84,
*Nset, nset=RightNode_105, instance=Plate-1
 105,
*Nset, nset=RightNode_126, instance=Plate-1
 126,
*Nset, nset=RightNode_147, instance=Plate-1
 147,
*Nset, nset=RightNode_168, instance=Plate-1
 168,
*Nset, nset=RightNode_189, instance=Plate-1
 189,
*End Assembly
** 
** MATERIALS
** 
*Material, name=Steel_linear_elastic
*Elastic
 2.1e+11, 0.3
** 
** BOUNDARY CONDITIONS
** 
** Name: BC_Left_Fixed Type: Displacement/Rotation
*Boundary
LeftEdge, 1, 1
LeftEdge, 2, 2
** ----------------------------------------------------------------
** 
** STEP: Load
** 
*Step, name=Load, nlgeom=NO
*Static
1., 1., 1e-05, 1.
** 
** LOADS
** 
** Name: Load_Right_21   Type: Concentrated force
*Cload
RightNode_21, 1, 25000.
** Name: Load_Right_42   Type: Concentrated force
*Cload
RightNode_42, 1, 50000.
** Name: Load_Right_63   Type: Concentrated force
*Cload
RightNode_63, 1, 50000.
** Name: Load_Right_84   Type: Concentrated force
*Cload
RightNode_84, 1, 50000.
** Name: Load_Right_105   Type: Concentrated force
*Cload
RightNode_105, 1, 50000.
** Name: Load_Right_126   Type: Concentrated force
*Cload
RightNode_126, 1, 50000.
** Name: Load_Right_147   Type: Concentrated force
*Cload
RightNode_147, 1, 50000.
** Name: Load_Right_168   Type: Concentrated force
*Cload
RightNode_168, 1, 50000.
** Name: Load_Right_189   Type: Concentrated force
*Cload
RightNode_189, 1, 25000.
** 
** OUTPUT REQUESTS
** 
*Restart, write, frequency=0
** 
** FIELD OUTPUT: F-Output-1
** 
*Output, field, variable=PRESELECT
** 
** HISTORY OUTPUT: H-Output-1
** 
*Output, history, variable=PRESELECT
*End Step
