*Heading
 Task 6 Example B, 8 beam elements
** Job name: ExampleB_8Elem Model name: ExampleB_8Elem
** Generated by: Abaqus/CAE 2026
*Preprint, echo=NO, model=NO, history=NO, contact=NO
**
** PARTS
**
*Part, name=Beam
*Node
      1,           0.,           0.
      2,  0.150000006,           0.
      3,  0.300000012,           0.
      4,  0.449999988,           0.
      5,  0.600000024,           0.
      6,         0.75,           0.
      7,  0.899999976,           0.
      8,   1.04999995,           0.
      9,   1.20000005,           0.
*Element, type=B21
1, 1, 2
2, 2, 3
3, 3, 4
4, 4, 5
5, 5, 6
6, 6, 7
7, 7, 8
8, 8, 9
*Nset, nset=_PickedSet2, internal, generate
 1,  9,  1
*Elset, elset=_PickedSet2, internal, generate
 1,  8,  1
** Section: BeamSection  Profile: Rect_20x40
*Beam Section, elset=_PickedSet2, material=Steel, poisson = 0.3, temperature=GRADIENTS, section=RECT
0.02, 0.04
0.,0.,-1.
*End Part
**  
**
** ASSEMBLY
**
*Assembly, name=Assembly
**  
*Instance, name=Beam-1, part=Beam
*End Instance
**  
*Nset, nset=FIXED_END, instance=Beam-1
 1,
*Nset, nset=FREE_END, instance=Beam-1
 9,
*End Assembly
** 
** MATERIALS
** 
*Material, name=Steel
*Elastic
 2.1e+11, 0.3
** 
** BOUNDARY CONDITIONS
** 
** Name: Encastre Type: Displacement/Rotation
*Boundary
FIXED_END, 1, 1
FIXED_END, 2, 2
FIXED_END, 6, 6
** ----------------------------------------------------------------
** 
** STEP: LoadStep
** 
*Step, name=LoadStep, nlgeom=NO
*Static
1., 1., 1e-05, 1.
** 
** LOADS
** 
** Name: Axial_Tension   Type: Concentrated force
*Cload, op=NEW
FREE_END, 1, 10000.
** Name: Vertical_Load   Type: Concentrated force
*Cload, op=NEW
FREE_END, 2, -600.
** 
** OUTPUT REQUESTS
** 
*Restart, write, frequency=0
** 
** FIELD OUTPUT: F-Output-1
** 
*Output, field, variable=PRESELECT
** 
** HISTORY OUTPUT: TipHistory
** 
*Output, history
*Node Output, nset=FREE_END
U1, U2, UR3
** 
** HISTORY OUTPUT: H-Output-1
** 
*Output, history, variable=PRESELECT
*End Step
